Circuit: * C:\Users\moatjon\Documents\applikon-sb\software\simulatie\3orde_butterworth_hp.asc

Direct Newton iteration failed to find .op point.  (Use ".option noopiter" to skip.)
Starting Gmin stepping
Gmin = 10
Gmin = 1.07374
Gmin = 0.115292
Gmin = 0.0123794
Gmin = 0.00132923
Gmin = 0.000142725
Gmin = 1.5325e-005
Gmin = 1.6455e-006
Gmin = 1.76685e-007
vernier = 0.5
vernier = 0.25
Gmin = 3.70535e-008
vernier = 0.333333
Gmin = 1.83389e-008
vernier = 0.444444
vernier = 0.592592
Gmin = 5.94392e-009
vernier = 0.790123
vernier = 1
Gmin = 1.06525e-009
Gmin = 1.1438e-010
Gmin = 1.22814e-011
Gmin = 1.31871e-012
Gmin = 1.41595e-013
Gmin = 0
Gmin stepping succeeded in finding the operating point.


Date: Tue Jun 28 12:26:35 2022
Total elapsed time: 0.122 seconds.

tnom = 27
temp = 27
method = trap
totiter = 732
traniter = 0
tranpoints = 0
accept = 0
rejected = 0
matrix size = 19
fillins = 8
solver = Normal
Matrix Compiler1:      71 opcodes
Matrix Compiler2: off  [0.4]/0.6/0.7

