Circuit: * C:\Users\moatjon\Documents\applikon-sb\software\simulatie\do_butterworth.asc

Direct Newton iteration failed to find .op point.  (Use ".option noopiter" to skip.)
Starting Gmin stepping
Gmin = 10
Gmin = 1.07374
Gmin = 0.115292
Gmin = 0.0123794
Gmin = 0.00132923
Gmin = 0.000142725
Gmin = 1.5325e-005
Gmin = 1.6455e-006
Gmin = 1.76685e-007
vernier = 0.5
vernier = 0.25
Gmin = 6.05449e-008
vernier = 0.125
vernier = 0.0625
vernier = 0.0833333
Gmin = 5.59596e-008
vernier = 0.111111
vernier = 0.0555555
Gmin = 4.90974e-008
vernier = 0.074074
vernier = 0.0987653
vernier = 0.0493827
vernier = 0.0246913
Gmin = 4.37092e-008
vernier = 0.0329218
Gmin = 4.05997e-008
vernier = 0.0438957
vernier = 0.0585276
Gmin = 3.58798e-008
vernier = 0.0780367
vernier = 0.104049
Gmin = 2.94836e-008
vernier = 0.138732
Gmin = 2.16834e-008
vernier = 0.184976
vernier = 0.246634
Gmin = 1.30134e-008
vernier = 0.328846
vernier = 0.438461
Gmin = 5.83717e-009
vernier = 0.584614
Gmin = 1.69846e-009
vernier = 0.779486
vernier = 1
Gmin = 2.3905e-010
Gmin = 2.56678e-011
Gmin = 2.75606e-012
Gmin = 2.95929e-013
Gmin = 0
Gmin stepping succeeded in finding the operating point.


Date: Tue Mar 08 10:50:39 2022
Total elapsed time: 0.151 seconds.

tnom = 27
temp = 27
method = trap
totiter = 1497
traniter = 0
tranpoints = 0
accept = 0
rejected = 0
matrix size = 35
fillins = 45
solver = Normal
Matrix Compiler1:     208 opcodes
Matrix Compiler2: off  [0.3]/0.4/0.4

