Circuit: * C:\Users\moatjon\Documents\applikon\software\simulatie\Draft1.asc

Direct Newton iteration failed to find .op point.  (Use ".option noopiter" to skip.)
Starting Gmin stepping
Gmin = 10
Gmin = 1.07374
Gmin = 0.115292
Gmin = 0.0123794
Gmin = 0.00132923
Gmin = 0.000142725
Gmin = 1.5325e-005
Gmin = 1.6455e-006
Gmin = 1.76685e-007
vernier = 0.5
vernier = 0.25
Gmin = 6.05449e-008
vernier = 0.333333
Gmin = 2.93893e-008
vernier = 0.444444
vernier = 0.592592
Gmin = 8.98779e-009
vernier = 0.790123
vernier = 1
Gmin = 1.47951e-009
Gmin = 1.58861e-010
Gmin = 1.70576e-011
Gmin = 1.83154e-012
Gmin = 1.9666e-013
Gmin = 0
Gmin stepping succeeded in finding the operating point.


Date: Fri Feb 25 10:33:46 2022
Total elapsed time: 0.109 seconds.

tnom = 27
temp = 27
method = trap
totiter = 690
traniter = 0
tranpoints = 0
accept = 0
rejected = 0
matrix size = 17
fillins = 7
solver = Normal
Matrix Compiler1:      59 opcodes
Matrix Compiler2: off  [0.1]/0.2/0.2

