Circuit: * C:\Users\moatjon\Documents\applikon\software\simulatie\Draft5.asc


Date: Mon Mar 07 14:52:20 2022
Total elapsed time: 0.051 seconds.

tnom = 27
temp = 27
method = trap
totiter = 0
traniter = 0
tranpoints = 0
accept = 0
rejected = 0
matrix size = 5
fillins = 0
solver = Normal

