Circuit: * C:\Users\moatjon\Documents\applikon-sb\software\simulatie\Draft2.asc

No AC stimulus found:
     Set the value of a current or voltage source to "AC 1."
     to make it behave as a signal generator for AC analysis.
Direct Newton iteration failed to find .op point.  (Use ".option noopiter" to skip.)
Starting Gmin stepping
Gmin = 10
Gmin = 1.07374
Gmin = 0.115292
Gmin = 0.0123794
Gmin = 0.00132923
Gmin = 0.000142725
Gmin = 1.5325e-005
Gmin = 1.6455e-006
Gmin = 1.76685e-007
Gmin = 1.89714e-008
Gmin = 2.03704e-009
vernier = 0.5
vernier = 0.25
vernier = 0.125
vernier = 0.0625
vernier = 0.03125
vernier = 0.015625
Gmin = 1.61697e-009
vernier = 0.0208333
vernier = 0.0277778
Gmin = 1.53844e-009
vernier = 0.037037
Gmin = 1.41919e-009
vernier = 0.0493827
vernier = 0.0658435
Gmin = 1.24392e-009
vernier = 0.0877914
vernier = 0.117055
Gmin = 1.01023e-009
vernier = 0.156073
Gmin = 7.22223e-010
vernier = 0.208098
vernier = 0.277464
Gmin = 4.19289e-010
vernier = 0.369952
vernier = 0.493269
Gmin = 1.79528e-010
vernier = 0.657691
Gmin = 4.68886e-011
vernier = 0.876922
vernier = 1
Gmin = 6.27641e-012
Gmin = 6.73925e-013
Gmin = 0
Gmin stepping succeeded in finding the operating point.


Date: Tue May 03 16:00:19 2022
Total elapsed time: 0.077 seconds.

tnom = 27
temp = 27
method = trap
totiter = 1203
traniter = 0
tranpoints = 0
accept = 0
rejected = 0
matrix size = 14
fillins = 8
solver = Normal
Matrix Compiler1:      44 opcodes
Matrix Compiler2: off  [0.1]/0.1/0.1

