Circuit: * C:\Users\moatjon\Documents\applikon\software\simulatie\Draft3.asc

WARNING: Less than two connections to node VRES.  This node is used by V4.
Direct Newton iteration for .op point succeeded.

Date: Tue Mar 01 15:31:06 2022
Total elapsed time: 0.122 seconds.

tnom = 27
temp = 27
method = trap
totiter = 28
traniter = 0
tranpoints = 0
accept = 0
rejected = 0
matrix size = 36
fillins = 25
solver = Normal
Matrix Compiler1:     163 opcodes
Matrix Compiler2: 3.38 KB object code size
