Circuit: * C:\Users\moatjon\Documents\applikon\software\simulatie\Draft3.asc

Direct Newton iteration failed to find .op point.  (Use ".option noopiter" to skip.)
Starting Gmin stepping
Gmin = 10
Gmin = 1.07374
Gmin = 0.115292
Gmin = 0.0123794
Gmin = 0.00132923
Gmin = 0.000142725
Gmin = 1.5325e-005
Gmin = 1.6455e-006
Gmin = 1.76685e-007
vernier = 0.5
vernier = 0.25
Gmin = 6.05449e-008
vernier = 0.125
vernier = 0.166667
Gmin = 4.68459e-008
vernier = 0.222222
vernier = 0.296296
Gmin = 2.70557e-008
vernier = 0.395061
Gmin = 1.15529e-008
vernier = 0.526748
vernier = 0.702331
Gmin = 2.87953e-009
vernier = 0.936441
vernier = 1
Gmin = 3.7746e-010
Gmin = 4.05295e-011
Gmin = 4.35182e-012
Gmin = 4.67273e-013
Gmin = 0
Gmin stepping succeeded in finding the operating point.


Date: Mon Mar 07 14:45:14 2022
Total elapsed time: 0.065 seconds.

tnom = 27
temp = 27
method = trap
totiter = 863
traniter = 0
tranpoints = 0
accept = 0
rejected = 0
matrix size = 21
fillins = 12
solver = Normal
Matrix Compiler1:      72 opcodes
Matrix Compiler2: off  [0.1]/0.2/0.3

