Circuit: * C:\Users\moatjon\Documents\applikon-sb\software\simulatie\ltspice_rc.asc


Date: Tue Mar 08 10:57:29 2022
Total elapsed time: 0.060 seconds.

tnom = 27
temp = 27
method = trap
totiter = 0
traniter = 0
tranpoints = 0
accept = 0
rejected = 0
matrix size = 9
fillins = 0
solver = Normal

