Circuit: * C:\Users\moatjon\Documents\applikon\software\simulatie\noise_simulation.asc


Date: Mon Mar 07 12:13:17 2022
Total elapsed time: 0.084 seconds.

tnom = 27
temp = 27
method = trap
totiter = 0
traniter = 0
tranpoints = 0
accept = 0
rejected = 0
matrix size = 6
fillins = 4
solver = Normal

